units(length='cm', time='s', quantity='mol', act_energy='kcal/mol')

ideal_gas(name='gas',
          elements="H D T C Ci O Oi N Ne Ar He Si S F Cl Br I X",
          species="""bR               gQOOH[O]         ipropyl
                     aadduct          galdol           ibut_peroxyacid
                     bQOOHa           ibutanal     aOOHbalkene
                     HO2              disub_epoxy      ibutenol
                     CH2O             balkoxyketone    acetone
                     disub_c4ether    O2               aQOOH[O]
                     H                bQOOH[O]         CH3
                     gQOOHa           gRO2             propene1ol
                     ipropylOOH       aQOOHb           aR
                     OH               aRO2             propene
                     galdoxy          aQOOHg           galkene
                     H2O              bQOOHg           gQOOHg
                     gQOOHb           formic_acid      performic_acid
                     bRO2             propene3ol       monosub_c4ether
                     gR               trisub_epoxy""",
          reactions='all',
          initial_state=state(temperature=300.0, pressure=OneAtm))

#-------------------------------------------------------------------------------
# Element data
#-------------------------------------------------------------------------------

element(symbol='Ci', atomic_mass=13.003)
element(symbol='D', atomic_mass=2.014)
element(symbol='Oi', atomic_mass=18.0)
element(symbol='T', atomic_mass=3.016)
element(symbol='X', atomic_mass=195.083)
#-------------------------------------------------------------------------------
# Species data
#-------------------------------------------------------------------------------

species(name='bR',
        atoms='C:4 H:9 O:1',
        thermo=(NASA([10.00, 483.44],
                     [ 3.38169281E+00,  5.97090459E-02, -1.58287430E-04,
                       3.04837328E-07, -2.13038808E-10, -1.37793484E+04,
                       1.09231282E+01]),
                NASA([483.44, 3000.00],
                     [ 2.33412772E+00,  4.22098516E-02, -2.28033039E-05,
                       6.04629171E-09, -6.30260304E-13, -1.33722798E+04,
                       1.83781633E+01])))

species(name='gQOOH[O]',
        atoms='C:4 H:9 O:3',
        thermo=(NASA([10.00, 535.30],
                     [ 3.83107541E+00,  1.02291567E-02,  2.29363505E-04,
                      -4.59009990E-07,  2.77675462E-10, -1.91131298E+04,
                       1.41013114E+01]),
                NASA([535.30, 3000.00],
                     [-4.21755844E-01,  7.69906504E-02, -5.57396763E-05,
                       1.81419905E-08, -2.18344813E-12, -1.91590274E+04,
                       2.72795173E+01])))

species(name='ipropyl',
        atoms='C:3 H:7',
        thermo=(NASA([10.00, 421.76],
                     [ 3.73942383E+00,  3.10087642E-02, -1.51210955E-04,
                       4.35404300E-07, -3.85597114E-10,  8.90336243E+03,
                       7.79442873E+00]),
                NASA([421.76, 3000.00],
                     [-4.74539857E-01,  3.20862214E-02, -1.67340185E-05,
                       4.21362062E-09, -4.13150506E-13,  9.60468548E+03,
                       2.85866915E+01])))

species(name='aadduct',
        atoms='C:4 H:9 O:3',
        thermo=(NASA([10.00, 449.87],
                     [ 3.06974502E+00,  9.19894041E-02, -2.67494769E-04,
                       5.13913683E-07, -3.67043623E-10, -3.17855364E+04,
                       1.46595218E+01]),
                NASA([449.87, 3000.00],
                     [ 4.11177358E+00,  5.17059489E-02, -2.97525262E-05,
                       8.33275838E-09, -9.09586758E-13, -3.15654161E+04,
                       1.39532387E+01])))

species(name='galdol',
        atoms='C:4 H:8 O:2',
        thermo=(NASA([10.00, 506.84],
                     [ 3.85382425E+00,  9.20968664E-03,  1.86692039E-04,
                      -3.96256203E-07,  2.55342018E-10, -4.69031046E+04,
                       1.24285414E+01]),
                NASA([506.84, 3000.00],
                     [ 1.49452820E+00,  5.66136846E-02, -3.87875835E-05,
                       1.23745535E-08, -1.48368637E-12, -4.70336670E+04,
                       1.85602156E+01])))

species(name='ibut_peroxyacid',
        atoms='C:4 H:8 O:3',
        thermo=(NASA([10.00, 1375.24],
                     [ 3.51030350E+00,  4.78206893E-02, -2.38914319E-05,
                       3.50789742E-09,  4.51994100E-13, -4.92551563E+04,
                       1.22005828E+01]),
                NASA([1375.24, 3000.00],
                     [ 1.22658519E+01,  3.06061925E-02, -1.41155260E-05,
                       3.13186499E-09, -2.72772128E-13, -5.24436780E+04,
                      -3.56666845E+01])))

species(name='bQOOHa',
        atoms='C:4 H:9 O:3',
        thermo=(NASA([10.00, 390.81],
                     [ 3.54980962E+00,  3.76388045E-02,  1.76570846E-04,
                      -5.97362491E-07,  5.43997308E-10, -2.76911099E+04,
                       1.31524667E+01]),
                NASA([390.81, 3000.00],
                     [ 5.33382850E+00,  5.65042688E-02, -3.83311610E-05,
                       1.23023505E-08, -1.49588694E-12, -2.81140638E+04,
                       2.59452782E+00])))

species(name='ibutanal',
        atoms='C:4 H:8 O:1',
        thermo=(NASA([10.00, 685.76],
                     [ 3.57156869E+00,  3.36554936E-02, -1.76084556E-05,
                       1.27427021E-08, -7.31065669E-12, -2.79425441E+04,
                       1.05632453E+01]),
                NASA([685.76, 3000.00],
                     [ 1.29252502E+00,  4.14739319E-02, -2.27342291E-05,
                       6.08333519E-09, -6.38592746E-13, -2.75012303E+04,
                       2.16372483E+01])))

species(name='aOOHbalkene',
        atoms='C:3 H:6 O:3',
        thermo=(NASA([10.00, 497.39],
                     [ 3.76688159E+00,  1.51445222E-02,  1.85493947E-04,
                      -4.61316793E-07,  3.27704551E-10, -3.16209111E+04,
                       1.09902894E+01]),
                NASA([497.39, 3000.00],
                     [ 6.20904500E+00,  4.08852230E-02, -2.89917842E-05,
                       9.60352888E-09, -1.19344102E-12, -3.24251925E+04,
                      -4.72908199E+00])))

species(name='HO2',
        atoms='H:1 O:2',
        thermo=(NASA([10.00, 891.12],
                     [ 4.02886989E+00, -1.75768394E-03,  1.08725202E-05,
                      -1.13811513E-08,  3.90105448E-12,  5.45486862E+02,
                       4.69301700E+00]),
                NASA([891.12, 3000.00],
                     [ 3.06572872E+00,  4.28499954E-03, -2.19321309E-06,
                       5.58865469E-10, -5.61223936E-14,  6.48873715E+02,
                       8.84554214E+00])))

species(name='disub_epoxy',
        atoms='C:4 H:8 O:2',
        thermo=(NASA([10.00, 549.38],
                     [ 3.89874809E+00,  5.96916850E-03,  1.66737245E-04,
                      -3.10840084E-07,  1.78388733E-10, -3.72696855E+04,
                       1.13817628E+01]),
                NASA([549.38, 3000.00],
                     [-6.43656886E-01,  6.06147022E-02, -4.13650206E-05,
                       1.31653588E-08, -1.57830433E-12, -3.70961337E+04,
                       2.76126165E+01])))

species(name='ibutenol',
        atoms='C:4 H:8 O:1',
        thermo=(NASA([10.00, 137.25],
                     [ 3.95628512E+00,  5.80281587E-03,  4.58762835E-04,
                      -2.98383687E-06,  6.65948013E-09, -2.45148783E+04,
                       8.27926340E+00]),
                NASA([137.25, 3000.00],
                     [ 3.31927555E+00,  3.69451989E-02, -1.90517221E-05,
                       4.76044872E-09, -4.63798183E-13, -2.45092386E+04,
                       9.65583654E+00])))

species(name='CH2O',
        atoms='C:1 H:2 O:1',
        thermo=(NASA([10.00, 601.31],
                     [ 4.03190867E+00, -1.93234440E-03,  8.89750134E-06,
                       2.98091729E-09, -7.90803598E-12, -1.44137663E+04,
                       3.47574646E+00]),
                NASA([601.31, 3000.00],
                     [ 1.40133365E+00,  9.48860702E-03, -4.43090724E-06,
                       9.48460921E-10, -7.43801447E-14, -1.39875246E+04,
                       1.57424189E+01])))

species(name='balkoxyketone',
        atoms='C:4 H:7 O:2',
        thermo=(NASA([10.00, 269.88],
                     [ 3.81932931E+00,  1.68517713E-02,  2.42768548E-04,
                      -9.65044669E-07,  1.18554067E-09, -2.12129400E+04,
                       1.20521353E+01]),
                NASA([269.88, 3000.00],
                     [ 3.57529044E+00,  4.28874819E-02, -2.65397001E-05,
                       7.99683399E-09, -9.33016075E-13, -2.12814131E+04,
                       1.13972383E+01])))

species(name='acetone',
        atoms='C:3 H:6 O:1',
        thermo=(NASA([10.00, 414.35],
                     [ 3.73496189E+00,  3.05743042E-02, -1.26253618E-04,
                       3.66081246E-07, -3.31430754E-10, -2.80268883E+04,
                       8.24935670E+00]),
                NASA([414.35, 3000.00],
                     [ 1.70006055E-01,  3.28431500E-02, -1.80960141E-05,
                       4.82960688E-09, -5.02388504E-13, -2.74555048E+04,
                       2.56372815E+01])))

species(name='disub_c4ether',
        atoms='C:4 H:8 O:2',
        thermo=(NASA([10.00, 413.94],
                     [ 3.78224823E+00,  1.89725383E-02,  8.63358621E-05,
                      -1.80070715E-07,  1.13227405E-10, -4.00940658E+04,
                       1.09980355E+01]),
                NASA([413.94, 3000.00],
                     [ 4.27599359E-01,  5.13892048E-02, -3.11324980E-05,
                       9.11613186E-09, -1.03207474E-12, -3.98163403E+04,
                       2.42233721E+01])))

species(name='O2',
        atoms='O:2',
        thermo=(NASA([10.00, 605.97],
                     [ 3.50743568E+00, -4.43890613E-04,  1.45963698E-06,
                       1.61440628E-09, -2.31995121E-12, -8.44241134E+02,
                       4.72183265E+00]),
                NASA([605.97, 3000.00],
                     [ 2.87460687E+00,  2.17846902E-03, -1.18268559E-06,
                       2.86932732E-10, -2.53328004E-14, -7.38997116E+02,
                       7.69342880E+00])))

species(name='aQOOH[O]',
        atoms='C:4 H:9 O:3',
        thermo=(NASA([10.00, 488.28],
                     [ 3.54577543E+00,  3.89355611E-02,  8.48983405E-05,
                      -2.45448663E-07,  1.76389312E-10, -2.39797363E+04,
                       1.34687215E+01]),
                NASA([488.28, 3000.00],
                     [ 3.94135702E+00,  5.71969109E-02, -3.72560591E-05,
                       1.15227200E-08, -1.35833906E-12, -2.42746846E+04,
                       9.21912720E+00])))

species(name='H',
        atoms='H:1',
        thermo=(NASA([10.00, 794.01],
                     [ 2.50000000E+00,  1.99051163E-15, -1.19089508E-17,
                       2.10805655E-20, -1.11017699E-23,  2.54725545E+04,
                      -4.61279342E-01]),
                NASA([794.01, 3000.00],
                     [ 2.50000000E+00,  1.52667235E-14, -1.58445285E-17,
                       6.63088600E-21, -9.62111674E-25,  2.54725545E+04,
                      -4.61279342E-01])))

species(name='bQOOH[O]',
        atoms='C:4 H:9 O:3',
        thermo=(NASA([10.00, 339.99],
                     [ 3.60932792E+00,  3.38338703E-02,  2.21539729E-04,
                      -8.17250909E-07,  8.46073533E-10, -2.26699287E+04,
                       1.23213319E+01]),
                NASA([339.99, 3000.00],
                     [ 5.01791765E+00,  5.47100545E-02, -3.57795368E-05,
                       1.12690260E-08, -1.35800609E-12, -2.29821515E+04,
                       3.86230724E+00])))

species(name='CH3',
        atoms='C:1 H:3',
        thermo=(NASA([10.00, 616.74],
                     [ 3.98929999E+00,  5.45134450E-04,  9.01330447E-06,
                      -1.08322558E-08,  4.38998626E-12,  1.64501065E+04,
                       2.22444803E-01]),
                NASA([616.74, 3000.00],
                     [ 3.35929262E+00,  4.63113698E-03, -9.24327408E-07,
                      -9.02678529E-11,  3.56929147E-14,  1.65278176E+04,
                       2.95738578E+00])))

species(name='gQOOHa',
        atoms='C:4 H:9 O:3',
        thermo=(NASA([10.00, 160.04],
                     [ 3.80949756E+00,  2.29751711E-02,  5.29370728E-04,
                      -3.13567157E-06,  6.09760181E-09, -2.56532104E+04,
                       1.17507348E+01]),
                NASA([160.04, 3000.00],
                     [ 2.89828188E+00,  6.50595016E-02, -4.60468485E-05,
                       1.51498883E-08, -1.87317461E-12, -2.56487739E+04,
                       1.37045813E+01])))

species(name='gRO2',
        atoms='C:4 H:9 O:3',
        thermo=(NASA([10.00, 177.34],
                     [ 3.70630300E+00,  3.49748205E-02,  4.64012461E-04,
                      -3.18615287E-06,  6.38111134E-09, -2.90623071E+04,
                       1.24462383E+01]),
                NASA([177.34, 3000.00],
                     [ 4.82088182E+00,  5.17167579E-02, -3.18374350E-05,
                       9.52198307E-09, -1.10173677E-12, -2.91676989E+04,
                       7.14005418E+00])))

species(name='propene1ol',
        atoms='C:3 H:6 O:1',
        thermo=(NASA([10.00, 458.95],
                     [ 3.91249573E+00,  5.85890852E-03,  1.15482230E-04,
                      -2.68387071E-07,  1.92241456E-10, -2.00202458E+04,
                       8.14820366E+00]),
                NASA([458.95, 3000.00],
                     [ 3.13949923E+00,  2.95532493E-02, -1.73804502E-05,
                       5.11301616E-09, -5.92636218E-13, -2.01278826E+04,
                       9.32980900E+00])))

species(name='ipropylOOH',
        atoms='C:3 H:7 O:2',
        thermo=(NASA([10.00, 405.00],
                     [ 3.30064443E+00,  7.58805779E-02, -3.35852557E-04,
                       8.06219583E-07, -6.69073667E-10, -5.31826585E+02,
                       1.43365961E+01]),
                NASA([405.00, 3000.00],
                     [ 2.51750759E+00,  3.72755925E-02, -2.12443891E-05,
                       5.83565024E-09, -6.22067019E-13, -8.83455846E+01,
                       2.20988406E+01])))

species(name='aQOOHb',
        atoms='C:4 H:9 O:3',
        thermo=(NASA([10.00, 412.76],
                     [ 3.15528710E+00,  8.54758644E-02, -2.35129667E-04,
                       4.71612528E-07, -3.62442659E-10, -2.94032609E+04,
                       1.52548904E+01]),
                NASA([412.76, 3000.00],
                     [ 4.17937215E+00,  5.26210760E-02, -3.24036963E-05,
                       9.59534806E-09, -1.09484015E-12, -2.92924621E+04,
                       1.35867014E+01])))

species(name='aR',
        atoms='C:4 H:9 O:1',
        thermo=(NASA([10.00, 447.66],
                     [ 3.59881606E+00,  3.37198977E-02,  8.52602708E-06,
                      -4.24440387E-08,  2.67410100E-11, -1.45011231E+04,
                       1.18242832E+01]),
                NASA([447.66, 3000.00],
                     [ 2.49587809E+00,  4.35751470E-02, -2.44968882E-05,
                       6.73507394E-09, -7.23840051E-13, -1.44023759E+04,
                       1.62588544E+01])))

species(name='OH',
        atoms='H:1 O:1',
        thermo=(NASA([10.00, 984.11],
                     [ 3.49686224E+00,  1.83979403E-04, -9.97670388E-07,
                       1.56949017E-09, -6.10160326E-13,  3.38655052E+03,
                       1.48093472E+00]),
                NASA([984.11, 3000.00],
                     [ 3.45225060E+00, -2.95208580E-04,  7.39489506E-07,
                      -2.89334999E-10,  3.53073500E-14,  3.42731562E+03,
                       1.85795051E+00])))

species(name='aRO2',
        atoms='C:4 H:9 O:3',
        thermo=(NASA([10.00, 669.94],
                     [ 3.45423906E+00,  4.74582017E-02,  9.87704978E-06,
                      -6.32972051E-08,  3.76707813E-11, -3.42865865E+04,
                       1.39287605E+01]),
                NASA([669.94, 3000.00],
                     [ 5.03713640E+00,  5.20083081E-02, -3.16596216E-05,
                       9.23272858E-09, -1.03663033E-12, -3.48128695E+04,
                       4.58129661E+00])))

species(name='propene',
        atoms='C:3 H:6',
        thermo=(NASA([10.00, 519.54],
                     [ 3.98723142E+00,  4.72523834E-04,  6.51743589E-05,
                      -9.89828947E-08,  4.91102712E-11,  7.11028764E+02,
                       6.98077703E+00]),
                NASA([519.54, 3000.00],
                     [ 3.79937178E-01,  2.82454142E-02, -1.50104057E-05,
                       3.90875240E-09, -4.00495156E-13,  1.08585678E+03,
                       2.20218012E+01])))

species(name='galdoxy',
        atoms='C:4 H:7 O:2',
        thermo=(NASA([10.00, 209.61],
                     [ 3.82639342E+00,  1.84781807E-02,  3.43083834E-04,
                      -1.82836387E-06,  2.98567551E-09, -1.89961453E+04,
                       1.17969120E+01]),
                NASA([209.61, 3000.00],
                     [ 4.22067537E+00,  4.03365165E-02, -2.36124725E-05,
                       6.72959774E-09, -7.47834371E-13, -1.90772193E+04,
                       8.97112010E+00])))

species(name='aQOOHg',
        atoms='C:4 H:9 O:3',
        thermo=(NASA([10.00, 456.11],
                     [ 3.62740306E+00,  2.81005051E-02,  2.09695584E-04,
                      -5.69120927E-07,  4.35749047E-10, -2.64913858E+04,
                       1.26631674E+01]),
                NASA([456.11, 3000.00],
                     [ 5.13925974E+00,  5.96589247E-02, -4.14790668E-05,
                       1.34339440E-08, -1.63654325E-12, -2.70954802E+04,
                       1.44578657E+00])))

species(name='galkene',
        atoms='C:4 H:8 O:1',
        thermo=(NASA([10.00, 384.64],
                     [ 3.84014603E+00,  1.20321048E-02,  1.87176569E-04,
                      -5.42578257E-07,  4.77486889E-10, -2.19441993E+04,
                       1.02558714E+01]),
                NASA([384.64, 3000.00],
                     [ 4.01368068E+00,  3.78895237E-02, -2.15386548E-05,
                       6.15227174E-09, -6.97686392E-13, -2.21621713E+04,
                       6.92451826E+00])))

species(name='H2O',
        atoms='H:2 O:1',
        thermo=(NASA([10.00, 773.86],
                     [ 4.00473579E+00, -2.39743726E-04,  8.11957159E-07,
                       1.47871441E-09, -1.19770350E-12, -3.04138189E+04,
                      -9.96295901E-02]),
                NASA([773.86, 3000.00],
                     [ 3.52130664E+00,  1.05383750E-03,  6.40661181E-07,
                      -3.86217172E-10,  5.49212286E-14, -3.03029099E+04,
                       2.34186951E+00])))

species(name='bQOOHg',
        atoms='C:4 H:9 O:3',
        thermo=(NASA([10.00, 441.11],
                     [ 3.56600015E+00,  3.36028081E-02,  2.03480289E-04,
                      -5.98988679E-07,  4.83259237E-10, -2.44290004E+04,
                       1.33541282E+01]),
                NASA([441.11, 3000.00],
                     [ 6.09006156E+00,  5.80528396E-02, -4.06403144E-05,
                       1.32577844E-08, -1.62505939E-12, -2.51122179E+04,
                      -1.97745650E+00])))

species(name='gQOOHg',
        atoms='C:4 H:9 O:3',
        thermo=(NASA([10.00, 475.31],
                     [ 3.42228898E+00,  4.98775163E-02,  6.44567238E-05,
                      -2.49002941E-07,  1.97924537E-10, -2.15866371E+04,
                       1.41558026E+01]),
                NASA([475.31, 3000.00],
                     [ 5.94359969E+00,  5.53682832E-02, -3.71608727E-05,
                       1.17498987E-08, -1.40752361E-12, -2.21280209E+04,
                       6.93499595E-01])))

species(name='gQOOHb',
        atoms='C:4 H:9 O:3',
        thermo=(NASA([10.00, 1018.64],
                     [ 3.99015092E+00,  4.29693952E-02,  2.28263761E-05,
                      -5.67854223E-08,  2.29368948E-11, -2.42215664E+04,
                       1.20330446E+01]),
                NASA([1018.64, 3000.00],
                     [ 1.38293487E+01,  3.88545029E-02, -2.19487610E-05,
                       5.78767504E-09, -5.85158126E-13, -2.80171371E+04,
                      -4.44084518E+01])))

species(name='formic_acid',
        atoms='C:1 H:2 O:2',
        thermo=(NASA([10.00, 741.26],
                     [ 4.06854200E+00, -4.74509279E-03,  4.71800771E-05,
                      -6.07540563E-08,  2.51332687E-11, -4.67886747E+04,
                       6.53681669E+00]),
                NASA([741.26, 3000.00],
                     [ 1.13645536E+00,  1.74946996E-02, -1.08104427E-05,
                       3.08043019E-09, -3.34850911E-13, -4.65303013E+04,
                       1.86152776E+01])))

species(name='performic_acid',
        atoms='C:1 H:2 O:3',
        thermo=(NASA([10.00, 590.81],
                     [ 3.92643406E+00,  4.24056152E-03,  6.71398448E-05,
                      -1.36612918E-07,  8.03856533E-11, -3.63229016E+04,
                       8.06477304E+00]),
                NASA([590.81, 3000.00],
                     [ 4.39687777E+00,  1.85503940E-02, -1.36095396E-05,
                       4.62645227E-09, -5.88947965E-13, -3.66838206E+04,
                       3.45870971E+00])))

species(name='bRO2',
        atoms='C:4 H:9 O:3',
        thermo=(NASA([10.00, 461.08],
                     [ 3.53990056E+00,  3.88527438E-02,  9.59311645E-05,
                      -2.80951053E-07,  2.10185662E-10, -3.30320407E+04,
                       1.18802889E+01]),
                NASA([461.08, 3000.00],
                     [ 3.46987170E+00,  6.00581490E-02, -4.00643853E-05,
                       1.25696298E-08, -1.49544038E-12, -3.32445338E+04,
                       9.78960022E+00])))

species(name='propene3ol',
        atoms='C:3 H:6 O:1',
        thermo=(NASA([10.00, 444.68],
                     [ 3.92773181E+00,  4.89826911E-03,  1.13116720E-04,
                      -2.59100188E-07,  1.86311624E-10, -1.71185181E+04,
                       9.90819029E+00]),
                NASA([444.68, 3000.00],
                     [ 2.61656334E+00,  3.01789272E-02, -1.76519151E-05,
                       5.14884692E-09, -5.91173009E-13, -1.71352507E+04,
                       1.36719525E+01])))

species(name='monosub_c4ether',
        atoms='C:4 H:8 O:2',
        thermo=(NASA([10.00, 380.35],
                     [ 3.47736074E+00,  6.08154459E-02, -2.78622357E-04,
                       8.23498447E-07, -7.87467524E-10, -3.32754336E+04,
                       1.06414493E+01]),
                NASA([380.35, 3000.00],
                     [-1.09396052E+00,  5.35994728E-02, -3.21085985E-05,
                       9.20825312E-09, -1.01830209E-12, -3.25277635E+04,
                       3.35339334E+01])))

species(name='gR',
        atoms='C:4 H:9 O:1',
        thermo=(NASA([10.00, 638.04],
                     [ 3.37091087E+00,  5.17481918E-02, -6.54748132E-05,
                       6.88068367E-08, -3.21655491E-11, -1.16821615E+04,
                       1.14335135E+01]),
                NASA([638.04, 3000.00],
                     [ 3.99361174E+00,  4.06342649E-02, -2.23961542E-05,
                       6.08470063E-09, -6.50038223E-13, -1.16148619E+04,
                       9.85924303E+00])))

species(name='trisub_epoxy',
        atoms='C:4 H:8 O:2',
        thermo=(NASA([10.00, 209.19],
                     [ 3.75298385E+00,  2.37512691E-02,  1.26635017E-04,
                      -4.78434454E-07,  5.79538831E-10, -4.11730808E+04,
                       1.12742052E+01]),
                NASA([209.19, 3000.00],
                     [ 2.64164774E+00,  4.50012930E-02, -2.57368138E-05,
                       7.15297169E-09, -7.73027370E-13, -4.11265842E+04,
                       1.48970735E+01])))

#-------------------------------------------------------------------------------
# Reaction data
#-------------------------------------------------------------------------------
#  Reaction index: Chemkin #1; RMG #1
#  Library reaction: Unclassified
#  Fitted to 20 data points; dA = *|/ 1.34936, dn = +|- 0.0419935, dEa = +|- 0.140192 kJ/mol

# Reaction 1
reaction('aQOOHb <=> OH + trisub_epoxy', [2.966000e+08, 1.061, 6.971])
#  Reaction index: Chemkin #2; RMG #2
#  Library reaction: Unclassified
#  Fitted to 20 data points; dA = *|/ 7.3278, dn = +|- 0.279134, dEa = +|- 0.931869 kJ/mol

# Reaction 2
reaction('aQOOH[O] <=> H + ibut_peroxyacid', [3.993000e+03, 3.005, 6.84])
#  Reaction index: Chemkin #3; RMG #3
#  Library reaction: Unclassified
#  Fitted to 20 data points; dA = *|/ 2.87397, dn = +|- 0.147956, dEa = +|- 0.493941 kJ/mol

# Reaction 3
reaction('aQOOHg <=> OH + disub_c4ether', [1.481000e+12, 0.1, 14.733])
#  Reaction index: Chemkin #4; RMG #4
#  Library reaction: Unclassified
#  Fitted to 20 data points; dA = *|/ 2.05392, dn = +|- 0.100873, dEa = +|- 0.336758 kJ/mol

# Reaction 4
reaction('aQOOH[O] <=> performic_acid + ipropyl', [3.002000e+11, 0.774, 3.925])
#  Reaction index: Chemkin #5; RMG #5
#  Library reaction: Unclassified
#  Fitted to 20 data points; dA = *|/ 1.35354, dn = +|- 0.0424271, dEa = +|- 0.14164 kJ/mol

# Reaction 5
reaction('aQOOHg <=> CH3 + aOOHbalkene', [4.168000e+12, 0.392, 32.36])
#  Reaction index: Chemkin #6; RMG #6
#  Library reaction: Unclassified
#  Fitted to 20 data points; dA = *|/ 1.48466, dn = +|- 0.055385, dEa = +|- 0.184899 kJ/mol

# Reaction 6
reaction('aQOOH[O] <=> HO2 + ibutanal', [6.646000e+11, 0.418, 12.39])
#  Reaction index: Chemkin #7; RMG #7
#  Library reaction: Unclassified
#  Fitted to 20 data points; dA = *|/ 2.70582, dn = +|- 0.139507, dEa = +|- 0.465733 kJ/mol

# Reaction 7
reaction('aRO2 <=> aadduct', [4.152000e+09, 0.926, 10.091])
#  Reaction index: Chemkin #8; RMG #8
#  Library reaction: Unclassified
#  Fitted to 20 data points; dA = *|/ 6.83466, dn = +|- 0.26937, dEa = +|- 0.899272 kJ/mol

# Reaction 8
reaction('aRO2 <=> HO2 + ibutenol', [1.475000e+06, 2.051, 29.327])
#  Reaction index: Chemkin #9; RMG #9
#  Library reaction: Unclassified
#  Fitted to 20 data points; dA = *|/ 1.08533, dn = +|- 0.0114757, dEa = +|- 0.0383108 kJ/mol

# Reaction 9
reaction('aQOOHb <=> HO2 + ibutenol', [1.197000e+07, 1.583, 15.795])
#  Reaction index: Chemkin #10; RMG #10
#  Library reaction: Unclassified
#  Fitted to 20 data points; dA = *|/ 3765.8, dn = +|- 1.15396, dEa = +|- 3.85241 kJ/mol

# Reaction 10
reaction('aRO2 <=> aQOOHb', [2.112000e-33, 13.485, 9.627])
#  Reaction index: Chemkin #11; RMG #11
#  Library reaction: Unclassified
#  Fitted to 20 data points; dA = *|/ 15517.1, dn = +|- 1.35241, dEa = +|- 4.51492 kJ/mol

# Reaction 11
reaction('aQOOHb <=> aQOOH[O]', [9.229000e-44, 16.273, 10.237])
#  Reaction index: Chemkin #12; RMG #12
#  Library reaction: Unclassified
#  Fitted to 20 data points; dA = *|/ 24.5639, dn = +|- 0.44866, dEa = +|- 1.49782 kJ/mol

# Reaction 12
reaction('aRO2 <=> aQOOHg', [7.719000e-07, 5.309, 16.677])
#  Reaction index: Chemkin #13; RMG #13
#  Library reaction: Unclassified
#  Fitted to 20 data points; dA = *|/ 274.7, dn = +|- 0.787039, dEa = +|- 2.62747 kJ/mol

# Reaction 13
reaction('aQOOHg <=> aQOOH[O]', [6.699000e-18, 8.564, 5.962])
#  Reaction index: Chemkin #14; RMG #14
#  Library reaction: Unclassified
#  Fitted to 20 data points; dA = *|/ 43.1864, dn = +|- 0.527739, dEa = +|- 1.76182 kJ/mol

# Reaction 14
reaction('aQOOHg <=> OH + formic_acid + propene', [1.867000e+06, 2.318, 18.654])
#  Reaction index: Chemkin #15; RMG #15
#  Library reaction: Unclassified
#  Fitted to 20 data points; dA = *|/ 1.0537, dn = +|- 0.00733128, dEa = +|- 0.024475 kJ/mol

# Reaction 15
reaction('aRO2 <=> aQOOH[O]', [4.380000e+10, 1.019, 21.675])
#  Reaction index: Chemkin #16; RMG #16
#  Library reaction: Unclassified

# Reaction 16
reaction('O2 + aR <=> aRO2', [2.588000e+11, 0.396, -1.157])
#  Reaction index: Chemkin #17; RMG #17
#  Library reaction: Unclassified

# Reaction 17
reaction('HO2 + ibutanal <=> aadduct', [1.054000e+13, 0.351, 0.0])
#  Reaction index: Chemkin #18; RMG #18
#  Library reaction: Unclassified
#  Fitted to 20 data points; dA = *|/ 154.154, dn = +|- 0.70607, dEa = +|- 2.35717 kJ/mol

# Reaction 18
reaction('bRO2 <=> bQOOHg', [9.771000e-29, 12.039, 15.061])
#  Reaction index: Chemkin #19; RMG #19
#  Library reaction: Unclassified
#  Fitted to 20 data points; dA = *|/ 238.006, dn = +|- 0.766944, dEa = +|- 2.56039 kJ/mol

# Reaction 19
reaction('bQOOHa <=> H2O + balkoxyketone', [4.399000e-03, 4.213, 8.434])
#  Reaction index: Chemkin #20; RMG #20
#  Library reaction: Unclassified
#  Fitted to 20 data points; dA = *|/ 1.52802, dn = +|- 0.0594194, dEa = +|- 0.198368 kJ/mol

# Reaction 20
reaction('bQOOHa <=> OH + trisub_epoxy', [5.436000e+11, 0.282, 6.768])
#  Reaction index: Chemkin #21; RMG #21
#  Library reaction: Unclassified
#  Fitted to 20 data points; dA = *|/ 1.56186, dn = +|- 0.0624898, dEa = +|- 0.208618 kJ/mol

# Reaction 21
reaction('bQOOHg <=> OH + disub_epoxy', [3.596000e+11, 0.081, 8.836])
#  Reaction index: Chemkin #22; RMG #22
#  Library reaction: Unclassified
#  Fitted to 20 data points; dA = *|/ 1.1451, dn = +|- 0.0189895, dEa = +|- 0.0633951 kJ/mol

# Reaction 22
reaction('bQOOHg <=> HO2 + galkene', [1.007000e+12, 0.187, 15.091])
#  Reaction index: Chemkin #23; RMG #23
#  Library reaction: Unclassified
#  Fitted to 20 data points; dA = *|/ 2.71512, dn = +|- 0.139987, dEa = +|- 0.467337 kJ/mol

# Reaction 23
reaction('bRO2 <=> HO2 + galkene', [1.810000e+06, 2.166, 26.834])
#  Reaction index: Chemkin #24; RMG #24
#  Library reaction: Unclassified
#  Fitted to 20 data points; dA = *|/ 46.4164, dn = +|- 0.537848, dEa = +|- 1.79557 kJ/mol

# Reaction 24
reaction('bRO2 <=> HO2 + ibutenol', [1.658000e+05, 2.574, 28.334])
#  Reaction index: Chemkin #25; RMG #25